goiania_leste_dss/TR2/CTMT_5002211.dss
! ==============================================================================
! ALIMENTADOR CTMT_5002211 - GOIANIA LESTE-20
! Subestacao: Trafo TR2 (GOL-S-TRF-TR2) | Barra MT: 4629 -> PAC_INI: 90018655002211
! ==============================================================================

! 1. Disjuntor de Saida MT do Alimentador
new line.DJ_5002211 phases=3 bus1=4629 bus2=90018655002211 switch=y r1=1e-4 x1=1e-4 length=0.001 units=km

! 2. Linhas de Media Tensao (MT)
new line.53092704 phases=3 bus1=82182725002211B.1.2.3 bus2=93349315002211.1.2.3 r1=0.195 x1=0.4 length=0.013026 units=km normamps=419.0
new line.53094064 phases=3 bus1=82199005002211B.1.2.3 bus2=95215045002211.1.2.3 r1=0.613 x1=0.45 length=0.012176 units=km normamps=203.0
new line.53107926 phases=3 bus1=82301915002211.1.2.3 bus2=82301905002211.1.2.3 r1=0.975 x1=0.47 length=0.046627 units=km normamps=152.0
new line.53107927 phases=3 bus1=82282465002211.1.2.3 bus2=82282455002211.1.2.3 r1=0.195 x1=0.4 length=0.036148 units=km normamps=419.0
new line.53107928 phases=3 bus1=82282455002211.1.2.3 bus2=82282445002211.1.2.3 r1=0.195 x1=0.4 length=0.034358 units=km normamps=419.0
new line.53107929 phases=3 bus1=82282445002211.1.2.3 bus2=82282435002211.1.2.3 r1=0.195 x1=0.4 length=0.034729 units=km normamps=419.0
new line.53107930 phases=3 bus1=82282435002211.1.2.3 bus2=82282425002211.1.2.3 r1=0.195 x1=0.4 length=0.034053 units=km normamps=419.0
new line.53107931 phases=3 bus1=82282425002211.1.2.3 bus2=82282415002211.1.2.3 r1=0.195 x1=0.4 length=0.025757 units=km normamps=419.0
new line.53107932 phases=3 bus1=80501165002211.1.2.3 bus2=82282485002211.1.2.3 r1=0.188 x1=0.26 length=0.042042 units=km normamps=525.0
new line.53107933 phases=3 bus1=82282485002211.1.2.3 bus2=82282475002211.1.2.3 r1=0.195 x1=0.4 length=0.031284 units=km normamps=419.0
new line.53107934 phases=3 bus1=82282475002211B.1.2.3 bus2=82282465002211.1.2.3 r1=0.195 x1=0.4 length=0.036655 units=km normamps=419.0
new line.53107935 phases=3 bus1=82282645002211.1.2.3 bus2=82282665002211.1.2.3 r1=0.195 x1=0.4 length=0.026121 units=km normamps=419.0
new line.53107936 phases=3 bus1=82282585002211.1.2.3 bus2=82282605002211.1.2.3 r1=0.195 x1=0.4 length=0.041402 units=km normamps=419.0
new line.53107937 phases=3 bus1=82282605002211.1.2.3 bus2=82282625002211.1.2.3 r1=0.195 x1=0.4 length=0.038055 units=km normamps=419.0
new line.53107938 phases=3 bus1=82282625002211.1.2.3 bus2=82282645002211.1.2.3 r1=0.195 x1=0.4 length=0.044396 units=km normamps=419.0
new line.53107939 phases=3 bus1=82282665002211.1.2.3 bus2=82282675002211.1.2.3 r1=0.195 x1=0.4 length=0.017858 units=km normamps=419.0
new line.53107940 phases=3 bus1=82282675002211.1.2.3 bus2=82282685002211.1.2.3 r1=0.195 x1=0.4 length=0.026996 units=km normamps=419.0
new line.53107941 phases=3 bus1=82282685002211.1.2.3 bus2=82282695002211.1.2.3 r1=0.195 x1=0.4 length=0.027779 units=km normamps=419.0
new line.53107942 phases=3 bus1=82282695002211.1.2.3 bus2=82182725002211.1.2.3 r1=0.195 x1=0.4 length=0.013015 units=km normamps=419.0
new line.53107943 phases=3 bus1=82282415002211.1.2.3 bus2=82282545002211.1.2.3 r1=0.195 x1=0.4 length=0.04095 units=km normamps=419.0
new line.53107944 phases=3 bus1=82282545002211.1.2.3 bus2=82282585002211.1.2.3 r1=0.195 x1=0.4 length=0.038055 units=km normamps=419.0
new line.53107945 phases=3 bus1=82290075002211.1.2.3 bus2=82289485002211.1.2.3 r1=1.551 x1=0.49 length=0.035437 units=km normamps=114.0
new line.53107946 phases=3 bus1=82290065002211.1.2.3 bus2=82290075002211.1.2.3 r1=1.551 x1=0.49 length=0.045544 units=km normamps=114.0
new line.53107947 phases=3 bus1=82289595002211.1.2.3 bus2=82290125002211.1.2.3 r1=0.195 x1=0.4 length=0.028206 units=km normamps=419.0
new line.53107948 phases=3 bus1=82290125002211.1.2.3 bus2=94324445002211.1.2.3 r1=0.195 x1=0.4 length=0.009877 units=km normamps=419.0
new line.53107949 phases=3 bus1=82290225002211.1.2.3 bus2=82290065002211.1.2.3 r1=1.551 x1=0.49 length=0.039072 units=km normamps=114.0
new line.53107950 phases=3 bus1=82290225002211.1.2.3 bus2=82290235002211B.1.2.3 r1=1.551 x1=0.49 length=0.038329 units=km normamps=114.0
new line.53107951 phases=3 bus1=82290145002211.1.2.3 bus2=82290255002211.1.2.3 r1=0.195 x1=0.4 length=0.034734 units=km normamps=419.0
new line.53107952 phases=3 bus1=82290255002211.1.2.3 bus2=82290265002211.1.2.3 r1=0.195 x1=0.4 length=0.037052 units=km normamps=419.0
new line.53107953 phases=3 bus1=82290265002211.1.2.3 bus2=82290285002211.1.2.3 r1=0.195 x1=0.4 length=0.013757 units=km normamps=419.0
new line.53107954 phases=3 bus1=82290285002211.1.2.3 bus2=82290295002211.1.2.3 r1=0.195 x1=0.4 length=0.045867 units=km normamps=419.0
new line.53107955 phases=3 bus1=82290295002211.1.2.3 bus2=82290195002211.1.2.3 r1=1.551 x1=0.49 length=0.010989 units=km normamps=114.0
new line.53107957 phases=3 bus1=82290295002211.1.2.3 bus2=94965015002211.1.2.3 r1=0.195 x1=0.4 length=0.041668 units=km normamps=419.0
new line.53107958 phases=3 bus1=82290305002211B.1.2.3 bus2=94709985002211.1.2.3 r1=0.195 x1=0.4 length=0.012888 units=km normamps=419.0
new line.53107959 phases=3 bus1=82290325002211.1.2.3 bus2=82290335002211.1.2.3 r1=0.195 x1=0.4 length=0.015928 units=km normamps=419.0
new line.53107960 phases=3 bus1=82293615002211.1.2.3 bus2=82293605002211.1.2.3 r1=1.551 x1=0.49 length=0.037431 units=km normamps=114.0
new line.53107961 phases=3 bus1=82293605002211.1.2.3 bus2=82292515002211.1.2.3 r1=1.551 x1=0.49 length=0.011208 units=km normamps=114.0
new line.53107962 phases=3 bus1=82293625002211.1.2.3 bus2=82293615002211.1.2.3 r1=1.551 x1=0.49 length=0.045897 units=km normamps=114.0
new line.53107963 phases=3 bus1=82284605002211.1.2.3 bus2=82300365002211.1.2.3 r1=0.975 x1=0.47 length=0.04721 units=km normamps=152.0
new line.53107964 phases=3 bus1=82293615002211.1.2.3 bus2=82301225002211.1.2.3 r1=1.551 x1=0.49 length=0.005729 units=km normamps=114.0
new line.53107965 phases=3 bus1=82284375002211.1.2.3 bus2=88876205002211.1.2.3 r1=0.975 x1=0.47 length=0.028572 units=km normamps=152.0
new line.53107966 phases=3 bus1=82285735002211.1.2.3 bus2=82285745002211.1.2.3 r1=0.195 x1=0.4 length=0.027469 units=km normamps=419.0
new line.53107967 phases=3 bus1=82285745002211.1.2.3 bus2=82285755002211.1.2.3 r1=0.195 x1=0.4 length=0.010226 units=km normamps=419.0
new line.53107968 phases=3 bus1=82285755002211.1.2.3 bus2=94308165002211.1.2.3 r1=0.195 x1=0.4 length=0.026155 units=km normamps=419.0
new line.53107970 phases=3 bus1=82285785002211.1.2.3 bus2=82285335002211.1.2.3 r1=0.975 x1=0.47 length=0.026214 units=km normamps=152.0
new line.53107971 phases=3 bus1=82292805002211.1.2.3 bus2=82293745002211.1.2.3 r1=0.195 x1=0.4 length=0.042923 units=km normamps=419.0
new line.53107972 phases=3 bus1=82293825002211.1.2.3 bus2=82293845002211.1.2.3 r1=1.551 x1=0.49 length=0.03867 units=km normamps=114.0
new line.53107973 phases=3 bus1=82293855002211.1.2.3 bus2=82293825002211.1.2.3 r1=1.551 x1=0.49 length=0.019453 units=km normamps=114.0
new line.53107974 phases=3 bus1=82293695002211.1.2.3 bus2=82293715002211.1.2.3 r1=1.551 x1=0.49 length=0.039461 units=km normamps=114.0
new line.53107975 phases=3 bus1=82293855002211.1.2.3 bus2=82293705002211.1.2.3 r1=1.551 x1=0.49 length=0.038867 units=km normamps=114.0
new line.53107978 phases=3 bus1=82294565002211.1.2.3 bus2=82294555002211.1.2.3 r1=1.551 x1=0.49 length=0.023519 units=km normamps=114.0
new line.53107979 phases=3 bus1=82294565002211.1.2.3 bus2=82289575002211.1.2.3 r1=0.195 x1=0.4 length=0.041271 units=km normamps=419.0
new line.53107980 phases=3 bus1=82294605002211.1.2.3 bus2=82294595002211.1.2.3 r1=1.551 x1=0.49 length=0.008796 units=km normamps=114.0
new line.53107981 phases=3 bus1=82294605002211.1.2.3 bus2=82294525002211.1.2.3 r1=1.551 x1=0.49 length=0.036178 units=km normamps=114.0
new line.53107982 phases=3 bus1=82294615002211.1.2.3 bus2=82294595002211B.1.2.3 r1=1.551 x1=0.49 length=0.031847 units=km normamps=114.0
new line.53107983 phases=3 bus1=82293745002211.1.2.3 bus2=82293865002211.1.2.3 r1=0.195 x1=0.4 length=0.031952 units=km normamps=419.0
new line.53107984 phases=3 bus1=82293865002211.1.2.3 bus2=82293875002211.1.2.3 r1=0.195 x1=0.4 length=0.036939 units=km normamps=419.0
new line.53107985 phases=3 bus1=82293875002211B.1.2.3 bus2=82293885002211.1.2.3 r1=1.551 x1=0.49 length=0.034495 units=km normamps=114.0
new line.53107986 phases=3 bus1=82293875002211.1.2.3 bus2=82293895002211.1.2.3 r1=0.195 x1=0.4 length=0.038433 units=km normamps=419.0
new line.53107987 phases=3 bus1=82293895002211.1.2.3 bus2=94065555002211.1.2.3 r1=0.195 x1=0.4 length=0.018258 units=km normamps=419.0
new line.53107988 phases=3 bus1=82293915002211B.1.2.3 bus2=94065545002211.1.2.3 r1=0.195 x1=0.4 length=0.011512 units=km normamps=419.0
new line.53107989 phases=3 bus1=82293925002211.1.2.3 bus2=82293945002211.1.2.3 r1=0.195 x1=0.4 length=0.031845 units=km normamps=419.0
new line.53107990 phases=3 bus1=82293955002211.1.2.3 bus2=82293945002211.1.2.3 r1=0.195 x1=0.4 length=0.03909 units=km normamps=419.0
new line.53107991 phases=3 bus1=82293945002211.1.2.3 bus2=82293965002211.1.2.3 r1=0.195 x1=0.4 length=0.03977 units=km normamps=419.0
new line.53107992 phases=3 bus1=82299965002211B.1.2.3 bus2=82286455002211.1.2.3 r1=0.975 x1=0.47 length=0.036939 units=km normamps=152.0
new line.53107993 phases=3 bus1=82283155002211.1.2.3 bus2=82283145002211.1.2.3 r1=0.613 x1=0.45 length=0.024554 units=km normamps=203.0
new line.53107994 phases=3 bus1=82283165002211.1.2.3 bus2=82300045002211.1.2.3 r1=0.195 x1=0.4 length=0.047043 units=km normamps=419.0
new line.53107995 phases=3 bus1=82283045002211.1.2.3 bus2=82283055002211.1.2.3 r1=0.195 x1=0.4 length=0.026755 units=km normamps=419.0
new line.53107996 phases=3 bus1=82283055002211.1.2.3 bus2=82283065002211.1.2.3 r1=0.195 x1=0.4 length=0.03982 units=km normamps=419.0
new line.53107997 phases=3 bus1=82283065002211.1.2.3 bus2=82283075002211.1.2.3 r1=0.195 x1=0.4 length=0.046298 units=km normamps=419.0
new line.53107998 phases=3 bus1=82283075002211.1.2.3 bus2=82283085002211.1.2.3 r1=0.195 x1=0.4 length=0.052073 units=km normamps=419.0
new line.53107999 phases=3 bus1=82283085002211.1.2.3 bus2=82283095002211.1.2.3 r1=0.195 x1=0.4 length=0.040517 units=km normamps=419.0
new line.53108000 phases=3 bus1=82283095002211.1.2.3 bus2=82283105002211.1.2.3 r1=0.195 x1=0.4 length=0.039005 units=km normamps=419.0
new line.53108001 phases=3 bus1=82283105002211.1.2.3 bus2=82283115002211.1.2.3 r1=0.195 x1=0.4 length=0.032628 units=km normamps=419.0
new line.53108002 phases=3 bus1=82283115002211.1.2.3 bus2=82283125002211.1.2.3 r1=0.195 x1=0.4 length=0.028276 units=km normamps=419.0
new line.53108003 phases=3 bus1=82283125002211.1.2.3 bus2=82283135002211.1.2.3 r1=0.195 x1=0.4 length=0.045404 units=km normamps=419.0
new line.53108005 phases=3 bus1=82283195002211.1.2.3 bus2=82283085002211.1.2.3 r1=0.195 x1=0.4 length=0.008417 units=km normamps=419.0
new line.53108006 phases=3 bus1=82283335002211.1.2.3 bus2=82283345002211.1.2.3 r1=0.613 x1=0.45 length=0.028282 units=km normamps=203.0
new line.53108007 phases=3 bus1=82283355002211.1.2.3 bus2=82283335002211.1.2.3 r1=0.613 x1=0.45 length=0.035803 units=km normamps=203.0
new line.53108008 phases=3 bus1=82283345002211.1.2.3 bus2=82283365002211.1.2.3 r1=0.613 x1=0.45 length=0.034729 units=km normamps=203.0
new line.53108009 phases=3 bus1=82294045002211.1.2.3 bus2=82294065002211.1.2.3 r1=1.551 x1=0.49 length=0.028201 units=km normamps=114.0
new line.53108010 phases=3 bus1=82294065002211.1.2.3 bus2=82294615002211.1.2.3 r1=1.551 x1=0.49 length=0.028208 units=km normamps=114.0
new line.53108011 phases=3 bus1=82294075002211.1.2.3 bus2=82294045002211.1.2.3 r1=1.551 x1=0.49 length=0.046268 units=km normamps=114.0
new line.53108012 phases=3 bus1=82294215002211.1.2.3 bus2=82294235002211.1.2.3 r1=1.551 x1=0.49 length=0.02603 units=km normamps=114.0
new line.53108013 phases=3 bus1=82294235002211.1.2.3 bus2=82293905002211.1.2.3 r1=1.551 x1=0.49 length=0.033977 units=km normamps=114.0
new line.53108014 phases=3 bus1=82293905002211.1.2.3 bus2=82293885002211.1.2.3 r1=1.551 x1=0.49 length=0.0311 units=km normamps=114.0
new line.53108015 phases=3 bus1=82294245002211.1.2.3 bus2=82294215002211.1.2.3 r1=1.551 x1=0.49 length=0.031814 units=km normamps=114.0
new line.53108016 phases=3 bus1=82294245002211.1.2.3 bus2=82294255002211.1.2.3 r1=1.551 x1=0.49 length=0.036883 units=km normamps=114.0
new line.53108017 phases=3 bus1=82294255002211.1.2.3 bus2=82294265002211.1.2.3 r1=1.551 x1=0.49 length=0.029654 units=km normamps=114.0
new line.53108018 phases=3 bus1=82294265002211.1.2.3 bus2=82294275002211.1.2.3 r1=1.551 x1=0.49 length=0.028201 units=km normamps=114.0
new line.53108019 phases=3 bus1=82294275002211.1.2.3 bus2=82294295002211.1.2.3 r1=1.551 x1=0.49 length=0.033984 units=km normamps=114.0
new line.53108020 phases=3 bus1=82294565002211.1.2.3 bus2=82294335002211.1.2.3 r1=0.195 x1=0.4 length=0.023864 units=km normamps=419.0
new line.53108021 phases=3 bus1=82294335002211.1.2.3 bus2=82294585002211.1.2.3 r1=0.195 x1=0.4 length=0.023872 units=km normamps=419.0
new line.53108022 phases=3 bus1=82294585002211.1.2.3 bus2=82294605002211.1.2.3 r1=0.195 x1=0.4 length=0.013757 units=km normamps=419.0
new line.53108023 phases=3 bus1=82294605002211.1.2.3 bus2=82293965002211.1.2.3 r1=0.195 x1=0.4 length=0.03326 units=km normamps=419.0
new line.53108024 phases=3 bus1=82294365002211.1.2.3 bus2=82294375002211.1.2.3 r1=0.975 x1=0.47 length=0.026445 units=km normamps=152.0
new line.53108025 phases=3 bus1=82290615002211.1.2.3 bus2=82294365002211.1.2.3 r1=0.975 x1=0.47 length=0.033534 units=km normamps=152.0
new line.53108026 phases=3 bus1=82290615002211.1.2.3 bus2=82290625002211.1.2.3 r1=0.975 x1=0.47 length=0.034053 units=km normamps=152.0
new line.53108027 phases=3 bus1=82290625002211.1.2.3 bus2=82290635002211.1.2.3 r1=0.975 x1=0.47 length=0.039045 units=km normamps=152.0
new line.53108028 phases=3 bus1=82290635002211.1.2.3 bus2=82290645002211.1.2.3 r1=0.975 x1=0.47 length=0.046291 units=km normamps=152.0
new line.53108029 phases=3 bus1=82290645002211.1.2.3 bus2=82290655002211.1.2.3 r1=0.975 x1=0.47 length=0.047736 units=km normamps=152.0
new line.53108030 phases=3 bus1=82290665002211.1.2.3 bus2=82290655002211.1.2.3 r1=1.551 x1=0.49 length=0.020273 units=km normamps=114.0
new line.53108031 phases=3 bus1=82298255002211.1.2.3 bus2=82298265002211.1.2.3 r1=0.195 x1=0.4 length=0.029647 units=km normamps=419.0
new line.53108032 phases=3 bus1=82298235002211.1.2.3 bus2=82298265002211.1.2.3 r1=1.551 x1=0.49 length=0.023236 units=km normamps=114.0
new line.53108033 phases=3 bus1=82298245002211.1.2.3 bus2=82298265002211.1.2.3 r1=1.551 x1=0.49 length=0.0159 units=km normamps=114.0
new line.53108034 phases=3 bus1=82298275002211.1.2.3 bus2=82298265002211.1.2.3 r1=0.195 x1=0.4 length=0.026182 units=km normamps=419.0
new line.53108035 phases=3 bus1=82286165002211.1.2.3 bus2=82299935002211B.1.2.3 r1=0.236 x1=0.27 length=0.010226 units=km normamps=456.0
new line.53108036 phases=3 bus1=82286625002211.1.2.3 bus2=82299725002211.1.2.3 r1=0.236 x1=0.27 length=0.017353 units=km normamps=456.0
new line.53108037 phases=3 bus1=82299725002211.1.2.3 bus2=82286635002211.1.2.3 r1=0.486 x1=0.44 length=0.010226 units=km normamps=235.0
new line.53108038 phases=3 bus1=82299135002211.1.2.3 bus2=82299705002211.1.2.3 r1=0.195 x1=0.4 length=0.029141 units=km normamps=419.0
new line.53108039 phases=3 bus1=82283365002211.1.2.3 bus2=82283375002211.1.2.3 r1=0.613 x1=0.45 length=0.0436 units=km normamps=203.0
new line.53108040 phases=3 bus1=82283375002211.1.2.3 bus2=82283385002211.1.2.3 r1=0.613 x1=0.45 length=0.041264 units=km normamps=203.0
new line.53108041 phases=3 bus1=82283385002211.1.2.3 bus2=82283395002211.1.2.3 r1=0.613 x1=0.45 length=0.040594 units=km normamps=203.0
new line.53108042 phases=3 bus1=82283395002211.1.2.3 bus2=82283405002211.1.2.3 r1=0.613 x1=0.45 length=0.038484 units=km normamps=203.0
new line.53108043 phases=3 bus1=82283405002211.1.2.3 bus2=82283145002211.1.2.3 r1=0.613 x1=0.45 length=0.015973 units=km normamps=203.0
new line.53108044 phases=3 bus1=82290655002211.1.2.3 bus2=82292835002211.1.2.3 r1=1.551 x1=0.49 length=0.037052 units=km normamps=114.0
new line.53108045 phases=3 bus1=82292835002211.1.2.3 bus2=82292855002211.1.2.3 r1=1.551 x1=0.49 length=0.042659 units=km normamps=114.0
new line.53108046 phases=3 bus1=82294295002211.1.2.3 bus2=82292975002211.1.2.3 r1=1.551 x1=0.49 length=0.017913 units=km normamps=114.0
new line.53108047 phases=3 bus1=82292855002211.1.2.3 bus2=82293035002211.1.2.3 r1=1.551 x1=0.49 length=0.043479 units=km normamps=114.0
new line.53108048 phases=3 bus1=82293035002211.1.2.3 bus2=82293175002211.1.2.3 r1=1.551 x1=0.49 length=0.027469 units=km normamps=114.0
new line.53108049 phases=3 bus1=82293175002211.1.2.3 bus2=82293185002211.1.2.3 r1=1.551 x1=0.49 length=0.041213 units=km normamps=114.0
new line.53108050 phases=3 bus1=82293205002211.1.2.3 bus2=82294075002211.1.2.3 r1=1.551 x1=0.49 length=0.028922 units=km normamps=114.0
new line.53108051 phases=3 bus1=82293185002211.1.2.3 bus2=82294385002211.1.2.3 r1=1.551 x1=0.49 length=0.023138 units=km normamps=114.0
new line.53108052 phases=3 bus1=82294385002211.1.2.3 bus2=82293205002211.1.2.3 r1=1.551 x1=0.49 length=0.028208 units=km normamps=114.0
new line.53108053 phases=3 bus1=82298295002211.1.2.3 bus2=82298245002211B.1.2.3 r1=1.551 x1=0.49 length=0.026063 units=km normamps=114.0
new line.53108054 phases=3 bus1=82298305002211.1.2.3 bus2=82298295002211.1.2.3 r1=1.551 x1=0.49 length=0.029654 units=km normamps=114.0
new line.53108055 phases=3 bus1=82298415002211.1.2.3 bus2=82298405002211.1.2.3 r1=1.551 x1=0.49 length=0.032545 units=km normamps=114.0
new line.53108056 phases=3 bus1=82298425002211.1.2.3 bus2=82298405002211.1.2.3 r1=1.551 x1=0.49 length=0.018839 units=km normamps=114.0
new line.53108057 phases=3 bus1=82298435002211B.1.2.3 bus2=92723915002211.1.2.3 r1=1.551 x1=0.49 length=0.010419 units=km normamps=114.0
new line.53108058 phases=3 bus1=82291435002211.1.2.3 bus2=82298475002211.1.2.3 r1=0.195 x1=0.4 length=0.027462 units=km normamps=419.0
new line.53108059 phases=3 bus1=82298475002211.1.2.3 bus2=82298465002211.1.2.3 r1=0.195 x1=0.4 length=0.020981 units=km normamps=419.0
new line.53108060 phases=3 bus1=82298435002211.1.2.3 bus2=82298475002211.1.2.3 r1=0.975 x1=0.47 length=0.028094 units=km normamps=152.0
new line.53108061 phases=3 bus1=82298745002211.1.2.3 bus2=82298475002211.1.2.3 r1=0.975 x1=0.47 length=0.003068 units=km normamps=152.0
new line.53108062 phases=3 bus1=82298805002211.1.2.3 bus2=82298835002211.1.2.3 r1=0.975 x1=0.47 length=0.041206 units=km normamps=152.0
new line.53108063 phases=3 bus1=82298835002211.1.2.3 bus2=82298845002211.1.2.3 r1=0.975 x1=0.47 length=0.038329 units=km normamps=152.0
new line.53108064 phases=3 bus1=82298845002211.1.2.3 bus2=82298855002211B.1.2.3 r1=0.975 x1=0.47 length=0.020477 units=km normamps=152.0
new line.53108065 phases=3 bus1=82298865002211.1.2.3 bus2=82298855002211.1.2.3 r1=0.195 x1=0.4 length=0.02174 units=km normamps=419.0
new line.53108066 phases=3 bus1=82298865002211.1.2.3 bus2=82298275002211.1.2.3 r1=0.195 x1=0.4 length=0.02174 units=km normamps=419.0
new line.53108067 phases=3 bus1=82298805002211.1.2.3 bus2=82300815002211.1.2.3 r1=0.975 x1=0.47 length=0.025141 units=km normamps=152.0
new line.53108068 phases=3 bus1=82300885002211.1.2.3 bus2=82300925002211.1.2.3 r1=1.551 x1=0.49 length=0.02531 units=km normamps=114.0
new line.53108069 phases=3 bus1=82300925002211.1.2.3 bus2=82298325002211.1.2.3 r1=1.551 x1=0.49 length=0.026763 units=km normamps=114.0
new line.53108070 phases=3 bus1=82298325002211.1.2.3 bus2=82298305002211.1.2.3 r1=1.551 x1=0.49 length=0.032545 units=km normamps=114.0
new line.53108071 phases=3 bus1=82300045002211.1.2.3 bus2=82283045002211.1.2.3 r1=0.195 x1=0.4 length=0.034048 units=km normamps=419.0
new line.53108072 phases=3 bus1=82283535002211B.1.2.3 bus2=82283545002211.1.2.3 r1=0.975 x1=0.47 length=0.033386 units=km normamps=152.0
new line.53108073 phases=3 bus1=82283545002211.1.2.3 bus2=82283555002211.1.2.3 r1=0.975 x1=0.47 length=0.040089 units=km normamps=152.0
new line.53108074 phases=3 bus1=82283565002211.1.2.3 bus2=82283575002211.1.2.3 r1=0.975 x1=0.47 length=0.030318 units=km normamps=152.0
new line.53108075 phases=3 bus1=82283575002211.1.2.3 bus2=82283595002211.1.2.3 r1=0.975 x1=0.47 length=0.029654 units=km normamps=152.0
new line.53108076 phases=3 bus1=82283595002211.1.2.3 bus2=82283605002211.1.2.3 r1=0.975 x1=0.47 length=0.010219 units=km normamps=152.0
new line.53108077 phases=3 bus1=82283605002211.1.2.3 bus2=82283615002211.1.2.3 r1=0.975 x1=0.47 length=0.022995 units=km normamps=152.0
new line.53108078 phases=3 bus1=82283605002211.1.2.3 bus2=82283625002211.1.2.3 r1=0.975 x1=0.47 length=0.011562 units=km normamps=152.0
new line.53108079 phases=3 bus1=82283555002211.1.2.3 bus2=82283605002211.1.2.3 r1=0.975 x1=0.47 length=0.025317 units=km normamps=152.0
new line.53108080 phases=3 bus1=82283625002211.1.2.3 bus2=82283635002211.1.2.3 r1=0.975 x1=0.47 length=0.026834 units=km normamps=152.0
new line.53108081 phases=3 bus1=82283635002211.1.2.3 bus2=82283645002211.1.2.3 r1=0.975 x1=0.47 length=0.030403 units=km normamps=152.0
new line.53108082 phases=3 bus1=82283645002211.1.2.3 bus2=82283655002211.1.2.3 r1=0.975 x1=0.47 length=0.011659 units=km normamps=152.0
new line.53108083 phases=3 bus1=82283655002211.1.2.3 bus2=82283665002211.1.2.3 r1=0.975 x1=0.47 length=0.01087 units=km normamps=152.0
new line.53108084 phases=3 bus1=82283665002211.1.2.3 bus2=82283675002211.1.2.3 r1=0.975 x1=0.47 length=0.040517 units=km normamps=152.0
new line.53108085 phases=3 bus1=82283655002211.1.2.3 bus2=82283715002211.1.2.3 r1=0.975 x1=0.47 length=0.030224 units=km normamps=152.0
new line.53108086 phases=3 bus1=82283735002211.1.2.3 bus2=82283655002211.1.2.3 r1=0.975 x1=0.47 length=0.030506 units=km normamps=152.0
new line.53108087 phases=3 bus1=82283795002211.1.2.3 bus2=82199005002211.1.2.3 r1=0.236 x1=0.27 length=0.045902 units=km normamps=456.0
new line.53108088 phases=3 bus1=82294435002211.1.2.3 bus2=82294425002211.1.2.3 r1=0.195 x1=0.4 length=0.029812 units=km normamps=419.0
new line.53108089 phases=3 bus1=82294465002211.1.2.3 bus2=82294435002211B.1.2.3 r1=0.195 x1=0.4 length=0.020451 units=km normamps=419.0
new line.53108090 phases=3 bus1=82294475002211.1.2.3 bus2=82294465002211.1.2.3 r1=0.975 x1=0.47 length=0.015907 units=km normamps=152.0
new line.53108091 phases=3 bus1=82294485002211.1.2.3 bus2=82294475002211B.1.2.3 r1=1.551 x1=0.49 length=0.03303 units=km normamps=114.0
new line.53108092 phases=3 bus1=82294495002211.1.2.3 bus2=82294465002211.1.2.3 r1=0.195 x1=0.4 length=0.0311 units=km normamps=419.0
new line.53108093 phases=3 bus1=82294505002211.1.2.3 bus2=82294485002211.1.2.3 r1=1.551 x1=0.49 length=0.032674 units=km normamps=114.0
new line.53108094 phases=3 bus1=82298995002211.1.2.3 bus2=82299015002211.1.2.3 r1=0.195 x1=0.4 length=0.042663 units=km normamps=419.0
new line.53108095 phases=3 bus1=82299015002211.1.2.3 bus2=82299035002211.1.2.3 r1=0.195 x1=0.4 length=0.035433 units=km normamps=419.0
new line.53108096 phases=3 bus1=82299035002211.1.2.3 bus2=82298255002211.1.2.3 r1=0.195 x1=0.4 length=0.022702 units=km normamps=419.0
new line.53108097 phases=3 bus1=82298415002211.1.2.3 bus2=82299045002211.1.2.3 r1=1.551 x1=0.49 length=0.031807 units=km normamps=114.0
new line.53108098 phases=3 bus1=82299045002211.1.2.3 bus2=82299055002211.1.2.3 r1=1.551 x1=0.49 length=0.027507 units=km normamps=114.0
new line.53108099 phases=3 bus1=82299075002211.1.2.3 bus2=82299085002211.1.2.3 r1=1.551 x1=0.49 length=0.019643 units=km normamps=114.0
new line.53108100 phases=3 bus1=82299085002211.1.2.3 bus2=82299055002211.1.2.3 r1=1.551 x1=0.49 length=0.008796 units=km normamps=114.0
new line.53108101 phases=3 bus1=82299085002211.1.2.3 bus2=82299065002211.1.2.3 r1=1.551 x1=0.49 length=0.022519 units=km normamps=114.0
new line.53108102 phases=3 bus1=82299095002211.1.2.3 bus2=82299085002211.1.2.3 r1=1.551 x1=0.49 length=0.014286 units=km normamps=114.0
new line.53108103 phases=3 bus1=82299065002211B.1.2.3 bus2=82299105002211.1.2.3 r1=1.551 x1=0.49 length=0.030368 units=km normamps=114.0
new line.53108104 phases=3 bus1=82299105002211.1.2.3 bus2=82299115002211.1.2.3 r1=1.551 x1=0.49 length=0.035254 units=km normamps=114.0
new line.53108105 phases=3 bus1=82299145002211.1.2.3 bus2=82299135002211.1.2.3 r1=0.195 x1=0.4 length=0.03378 units=km normamps=419.0
new line.53108106 phases=3 bus1=82299155002211.1.2.3 bus2=82299145002211.1.2.3 r1=0.195 x1=0.4 length=0.036922 units=km normamps=419.0
new line.53108107 phases=3 bus1=82299165002211.1.2.3 bus2=82299155002211.1.2.3 r1=0.195 x1=0.4 length=0.020074 units=km normamps=419.0
new line.53108108 phases=3 bus1=82299175002211.1.2.3 bus2=82299155002211.1.2.3 r1=0.195 x1=0.4 length=0.027269 units=km normamps=419.0
new line.53108109 phases=3 bus1=82299185002211.1.2.3 bus2=82299175002211.1.2.3 r1=0.195 x1=0.4 length=0.035781 units=km normamps=419.0
new line.53108110 phases=3 bus1=82299185002211.1.2.3 bus2=82298855002211.1.2.3 r1=0.195 x1=0.4 length=0.056417 units=km normamps=419.0
new line.53108111 phases=3 bus1=82299175002211B.1.2.3 bus2=82286725002211.1.2.3 r1=1.551 x1=0.49 length=0.035177 units=km normamps=114.0
new line.53108112 phases=3 bus1=82294915002211.1.2.3 bus2=82294905002211.1.2.3 r1=1.551 x1=0.49 length=0.036443 units=km normamps=114.0
new line.53108113 phases=3 bus1=82294925002211B.1.2.3 bus2=82294915002211.1.2.3 r1=1.551 x1=0.49 length=0.023519 units=km normamps=114.0
new line.53108114 phases=3 bus1=82294465002211.1.2.3 bus2=82294925002211.1.2.3 r1=0.975 x1=0.47 length=0.026381 units=km normamps=152.0
new line.53108115 phases=3 bus1=82294935002211.1.2.3 bus2=82294945002211.1.2.3 r1=0.975 x1=0.47 length=0.025889 units=km normamps=152.0
new line.53108116 phases=3 bus1=82294915002211.1.2.3 bus2=82294935002211.1.2.3 r1=0.975 x1=0.47 length=0.012482 units=km normamps=152.0
new line.53108117 phases=3 bus1=82294945002211.1.2.3 bus2=82294955002211.1.2.3 r1=0.975 x1=0.47 length=0.034902 units=km normamps=152.0
new line.53108118 phases=3 bus1=82294955002211.1.2.3 bus2=82294965002211.1.2.3 r1=0.975 x1=0.47 length=0.033109 units=km normamps=152.0
new line.53108119 phases=3 bus1=82294965002211.1.2.3 bus2=82294975002211.1.2.3 r1=0.975 x1=0.47 length=0.032865 units=km normamps=152.0
new line.53108120 phases=3 bus1=82294975002211.1.2.3 bus2=82295005002211.1.2.3 r1=0.975 x1=0.47 length=0.034825 units=km normamps=152.0
new line.53108121 phases=3 bus1=82294975002211.1.2.3 bus2=82295025002211.1.2.3 r1=0.975 x1=0.47 length=0.041628 units=km normamps=152.0
new line.53108122 phases=3 bus1=82295025002211.1.2.3 bus2=82295055002211.1.2.3 r1=0.975 x1=0.47 length=0.032092 units=km normamps=152.0
new line.53108123 phases=3 bus1=82295055002211.1.2.3 bus2=82295075002211.1.2.3 r1=0.975 x1=0.47 length=0.012356 units=km normamps=152.0
new line.53108124 phases=3 bus1=82295075002211.1.2.3 bus2=82295985002211.1.2.3 r1=0.975 x1=0.47 length=0.031847 units=km normamps=152.0
new line.53108125 phases=3 bus1=82295985002211.1.2.3 bus2=82293475002211.1.2.3 r1=0.975 x1=0.47 length=0.031837 units=km normamps=152.0
new line.53108126 phases=3 bus1=82300945002211.1.2.3 bus2=82299255002211.1.2.3 r1=1.551 x1=0.49 length=0.047173 units=km normamps=114.0
new line.53108127 phases=3 bus1=82299255002211.1.2.3 bus2=82299075002211.1.2.3 r1=1.551 x1=0.49 length=0.036412 units=km normamps=114.0
new line.53108128 phases=3 bus1=82301045002211.1.2.3 bus2=82301015002211.1.2.3 r1=1.551 x1=0.49 length=0.037534 units=km normamps=114.0
...

! 3. Chaves Seccionadoras MT
new line.SC_5287792 phases=3 bus1=82182725002211.1.2.3 bus2=82182725002211B.1.2.3 switch=y r1=1e-4 x1=1e-4 length=0.001 units=km
new line.SC_5287806 phases=3 bus1=82199005002211.1.2.3 bus2=82199005002211B.1.2.3 switch=y r1=1e-4 x1=1e-4 length=0.001 units=km
new line.SC_5289105 phases=3 bus1=82282475002211.1.2.3 bus2=82282475002211B.1.2.3 switch=y r1=1e-4 x1=1e-4 length=0.001 units=km
new line.SC_5289106 phases=3 bus1=82300015002211.1.2.3 bus2=82300015002211B.1.2.3 switch=y r1=1e-4 x1=1e-4 length=0.001 units=km
new line.SC_5289107 phases=3 bus1=82299705002211.1.2.3 bus2=82299705002211B.1.2.3 switch=y r1=1e-4 x1=1e-4 length=0.001 units=km
new line.SC_5289108 phases=3 bus1=82288695002211.1.2.3 bus2=82288695002211B.1.2.3 switch=y r1=1e-4 x1=1e-4 length=0.001 units=km
new line.SC_5289110 phases=3 bus1=82294435002211.1.2.3 bus2=82294435002211B.1.2.3 switch=y r1=1e-4 x1=1e-4 length=0.001 units=km
new line.SC_5289111 phases=3 bus1=82301355002211.1.2.3 bus2=82301355002211B.1.2.3 switch=y r1=1e-4 x1=1e-4 length=0.001 units=km
new line.SC_5289112 phases=3 bus1=82303605002211.1.2.3 bus2=82303605002211B.1.2.3 switch=y r1=1e-4 x1=1e-4 length=0.001 units=km
new line.SC_5289113 phases=3 bus1=82307355002211.1.2.3 bus2=82307355002211B.1.2.3 switch=y r1=1e-4 x1=1e-4 length=0.001 units=km
new line.SC_5289114 phases=3 bus1=82308275002211.1.2.3 bus2=82308275002211B.1.2.3 switch=y r1=1e-4 x1=1e-4 length=0.001 units=km
new line.SC_5289116 phases=3 bus1=82308365002211.1.2.3 bus2=82308365002211B.1.2.3 switch=y r1=1e-4 x1=1e-4 length=0.001 units=km
new line.SC_5289118 phases=3 bus1=82309905002211.1.2.3 bus2=82309905002211B.1.2.3 switch=y r1=1e-4 x1=1e-4 length=0.001 units=km
new line.SC_5289144 phases=3 bus1=82295685002211.1.2.3 bus2=82295685002211B.1.2.3 switch=y r1=1e-4 x1=1e-4 length=0.001 units=km
new line.SC_5289145 phases=3 bus1=82297135002211.1.2.3 bus2=82297135002211B.1.2.3 switch=y r1=1e-4 x1=1e-4 length=0.001 units=km
new line.SC_5289147 phases=3 bus1=82299935002211.1.2.3 bus2=82299935002211B.1.2.3 switch=y r1=1e-4 x1=1e-4 length=0.001 units=km
new line.SC_5289148 phases=3 bus1=82300025002211.1.2.3 bus2=82300025002211B.1.2.3 switch=y r1=1e-4 x1=1e-4 length=0.001 units=km
new line.SC_5289149 phases=3 bus1=82299965002211.1.2.3 bus2=82299965002211B.1.2.3 switch=y r1=1e-4 x1=1e-4 length=0.001 units=km
new line.SC_5289150 phases=3 bus1=82299895002211.1.2.3 bus2=82299895002211B.1.2.3 switch=y r1=1e-4 x1=1e-4 length=0.001 units=km
new line.SC_5289152 phases=3 bus1=82283535002211.1.2.3 bus2=82283535002211B.1.2.3 switch=y r1=1e-4 x1=1e-4 length=0.001 units=km
new line.SC_5289153 phases=3 bus1=82298245002211.1.2.3 bus2=82298245002211B.1.2.3 switch=y r1=1e-4 x1=1e-4 length=0.001 units=km
new line.SC_5289154 phases=3 bus1=82298435002211.1.2.3 bus2=82298435002211B.1.2.3 switch=y r1=1e-4 x1=1e-4 length=0.001 units=km
new line.SC_5289155 phases=3 bus1=82298855002211.1.2.3 bus2=82298855002211B.1.2.3 switch=y r1=1e-4 x1=1e-4 length=0.001 units=km
new line.SC_5289156 phases=3 bus1=82299065002211.1.2.3 bus2=82299065002211B.1.2.3 switch=y r1=1e-4 x1=1e-4 length=0.001 units=km
new line.SC_5289157 phases=3 bus1=82299175002211.1.2.3 bus2=82299175002211B.1.2.3 switch=y r1=1e-4 x1=1e-4 length=0.001 units=km
new line.SC_5289158 phases=3 bus1=82284055002211.1.2.3 bus2=82284055002211B.1.2.3 switch=y r1=1e-4 x1=1e-4 length=0.001 units=km
new line.SC_5289159 phases=3 bus1=82284175002211.1.2.3 bus2=82284175002211B.1.2.3 switch=y r1=1e-4 x1=1e-4 length=0.001 units=km
new line.SC_5289161 phases=3 bus1=82284485002211.1.2.3 bus2=82284485002211B.1.2.3 switch=y r1=1e-4 x1=1e-4 length=0.001 units=km
new line.SC_5289163 phases=3 bus1=82290235002211.1.2.3 bus2=82290235002211B.1.2.3 switch=y r1=1e-4 x1=1e-4 length=0.001 units=km
new line.SC_5289164 phases=3 bus1=82288725002211.1.2.3 bus2=82288725002211B.1.2.3 switch=y r1=1e-4 x1=1e-4 length=0.001 units=km
new line.SC_5289165 phases=3 bus1=82285505002211.1.2.3 bus2=82285505002211B.1.2.3 switch=y r1=1e-4 x1=1e-4 length=0.001 units=km
new line.SC_5289166 phases=3 bus1=82294475002211.1.2.3 bus2=82294475002211B.1.2.3 switch=y r1=1e-4 x1=1e-4 length=0.001 units=km
new line.SC_5289167 phases=3 bus1=82294925002211.1.2.3 bus2=82294925002211B.1.2.3 switch=y r1=1e-4 x1=1e-4 length=0.001 units=km
new line.SC_5289168 phases=3 bus1=82290755002211.1.2.3 bus2=82290755002211B.1.2.3 switch=y r1=1e-4 x1=1e-4 length=0.001 units=km
new line.SC_5289171 phases=3 bus1=82294595002211.1.2.3 bus2=82294595002211B.1.2.3 switch=y r1=1e-4 x1=1e-4 length=0.001 units=km
new line.SC_5289172 phases=3 bus1=82293875002211.1.2.3 bus2=82293875002211B.1.2.3 switch=y r1=1e-4 x1=1e-4 length=0.001 units=km
new line.SC_5289178 phases=3 bus1=82309225002211.1.2.3 bus2=82309225002211B.1.2.3 switch=y r1=1e-4 x1=1e-4 length=0.001 units=km
new line.SC_5289179 phases=3 bus1=82309945002211.1.2.3 bus2=82309945002211B.1.2.3 switch=y r1=1e-4 x1=1e-4 length=0.001 units=km
new line.SC_5289180 phases=3 bus1=82310135002211.1.2.3 bus2=82310135002211B.1.2.3 switch=y r1=1e-4 x1=1e-4 length=0.001 units=km
new line.SC_5289187 phases=1 bus1=82302445002211.2 bus2=82302445002211B.2 switch=y r1=1e-4 x1=1e-4 length=0.001 units=km
new line.SC_5289195 phases=3 bus1=82309485002211.1.2.3 bus2=82309485002211B.1.2.3 switch=y r1=1e-4 x1=1e-4 length=0.001 units=km
new line.SC_5289196 phases=3 bus1=82307995002211.1.2.3 bus2=82307995002211B.1.2.3 switch=y r1=1e-4 x1=1e-4 length=0.001 units=km
new line.SC_5289201 phases=3 bus1=82319625002211.1.2.3 bus2=82319625002211B.1.2.3 switch=y r1=1e-4 x1=1e-4 length=0.001 units=km
new line.SC_5289203 phases=3 bus1=82311685002211.1.2.3 bus2=82311685002211B.1.2.3 switch=y r1=1e-4 x1=1e-4 length=0.001 units=km
new line.SC_5317407 phases=3 bus1=84106515002211.1.2.3 bus2=84106515002211B.1.2.3 switch=y r1=1e-4 x1=1e-4 length=0.001 units=km
new line.SC_5322890 phases=3 bus1=82308285002211.1.2.3 bus2=82308285002211B.1.2.3 switch=y r1=1e-4 x1=1e-4 length=0.001 units=km
new line.SC_5324419 phases=3 bus1=95193575002211.1.2.3 bus2=95193575002211B.1.2.3 switch=y r1=1e-4 x1=1e-4 length=0.001 units=km
new line.SC_5327585 phases=3 bus1=82318205002211.1.2.3 bus2=82318205002211B.1.2.3 switch=y r1=1e-4 x1=1e-4 length=0.001 units=km
new line.SC_5429530 phases=3 bus1=82282665002211.1.2.3 bus2=82282665002211B.1.2.3 switch=y r1=1e-4 x1=1e-4 length=0.001 units=km
new line.SC_5546319 phases=3 bus1=93293375002211.1.2.3 bus2=93293375002211B.1.2.3 switch=y r1=1e-4 x1=1e-4 length=0.001 units=km
new line.SC_5546320 phases=3 bus1=89991435002211.1.2.3 bus2=89991435002211B.1.2.3 switch=y r1=1e-4 x1=1e-4 length=0.001 units=km
new line.SC_5546321 phases=3 bus1=89991445002211.1.2.3 bus2=89991445002211B.1.2.3 switch=y r1=1e-4 x1=1e-4 length=0.001 units=km
open line.SC_5546321 1
new line.SC_5546322 phases=3 bus1=82299715002211.1.2.3 bus2=82299715002211B.1.2.3 switch=y r1=1e-4 x1=1e-4 length=0.001 units=km
new line.SC_5547567 phases=3 bus1=90018085002211.1.2.3 bus2=90018085002211B.1.2.3 switch=y r1=1e-4 x1=1e-4 length=0.001 units=km
open line.SC_5547567 1
new line.SC_5547568 phases=3 bus1=90018035002211.1.2.3 bus2=90018035002211B.1.2.3 switch=y r1=1e-4 x1=1e-4 length=0.001 units=km
open line.SC_5547568 1
new line.SC_5547569 phases=3 bus1=90018075002211.1.2.3 bus2=90018075002211B.1.2.3 switch=y r1=1e-4 x1=1e-4 length=0.001 units=km
new line.SC_5636358 phases=3 bus1=92723905002211.1.2.3 bus2=92723905002211B.1.2.3 switch=y r1=1e-4 x1=1e-4 length=0.001 units=km
new line.SC_5636360 phases=3 bus1=92723945002211.1.2.3 bus2=92723945002211B.1.2.3 switch=y r1=1e-4 x1=1e-4 length=0.001 units=km
open line.SC_5636360 1
new line.SC_5649369 phases=3 bus1=82308835002211.1.2.3 bus2=82308835002211B.1.2.3 switch=y r1=1e-4 x1=1e-4 length=0.001 units=km
new line.SC_5659800 phases=3 bus1=93492735002211.1.2.3 bus2=93492735002211B.1.2.3 switch=y r1=1e-4 x1=1e-4 length=0.001 units=km
new line.SC_5659801 phases=3 bus1=93492955002211.1.2.3 bus2=93492955002211B.1.2.3 switch=y r1=1e-4 x1=1e-4 length=0.001 units=km
open line.SC_5659801 1
new line.SC_5677862 phases=3 bus1=94065565002211.1.2.3 bus2=94065565002211B.1.2.3 switch=y r1=1e-4 x1=1e-4 length=0.001 units=km
open line.SC_5677862 1
new line.SC_5677874 phases=3 bus1=82293915002211.1.2.3 bus2=82293915002211B.1.2.3 switch=y r1=1e-4 x1=1e-4 length=0.001 units=km
new line.SC_5682866 phases=3 bus1=94192115002211.1.2.3 bus2=94192115002211B.1.2.3 switch=y r1=1e-4 x1=1e-4 length=0.001 units=km
open line.SC_5682866 1
new line.SC_5682879 phases=3 bus1=94191445002211.1.2.3 bus2=94191445002211B.1.2.3 switch=y r1=1e-4 x1=1e-4 length=0.001 units=km
new line.SC_5682880 phases=3 bus1=94191485002211.1.2.3 bus2=94191485002211B.1.2.3 switch=y r1=1e-4 x1=1e-4 length=0.001 units=km
open line.SC_5682880 1
new line.SC_5682929 phases=3 bus1=94192065002211.1.2.3 bus2=94192065002211B.1.2.3 switch=y r1=1e-4 x1=1e-4 length=0.001 units=km
new line.SC_5683739 phases=3 bus1=94205055002211.1.2.3 bus2=94205055002211B.1.2.3 switch=y r1=1e-4 x1=1e-4 length=0.001 units=km
new line.SC_5683978 phases=3 bus1=94205085002211.1.2.3 bus2=94205085002211B.1.2.3 switch=y r1=1e-4 x1=1e-4 length=0.001 units=km
open line.SC_5683978 1
new line.SC_5684371 phases=3 bus1=94215435002211.1.2.3 bus2=94215435002211B.1.2.3 switch=y r1=1e-4 x1=1e-4 length=0.001 units=km
open line.SC_5684371 1
new line.SC_5684391 phases=3 bus1=94215545002211.1.2.3 bus2=94215545002211B.1.2.3 switch=y r1=1e-4 x1=1e-4 length=0.001 units=km
open line.SC_5684391 1
new line.SC_5687390 phases=3 bus1=94291875002211.1.2.3 bus2=94291875002211B.1.2.3 switch=y r1=1e-4 x1=1e-4 length=0.001 units=km
open line.SC_5687390 1
new line.SC_5688056 phases=3 bus1=94308175002211.1.2.3 bus2=94308175002211B.1.2.3 switch=y r1=1e-4 x1=1e-4 length=0.001 units=km
open line.SC_5688056 1
new line.SC_5688511 phases=3 bus1=94324425002211.1.2.3 bus2=94324425002211B.1.2.3 switch=y r1=1e-4 x1=1e-4 length=0.001 units=km
open line.SC_5688511 1
new line.SC_5689337 phases=3 bus1=94344345002211.1.2.3 bus2=94344345002211B.1.2.3 switch=y r1=1e-4 x1=1e-4 length=0.001 units=km
new line.SC_5689352 phases=3 bus1=94344285002211.1.2.3 bus2=94344285002211B.1.2.3 switch=y r1=1e-4 x1=1e-4 length=0.001 units=km
open line.SC_5689352 1
new line.SC_5691044 phases=3 bus1=94378645002211.1.2.3 bus2=94378645002211B.1.2.3 switch=y r1=1e-4 x1=1e-4 length=0.001 units=km
new line.SC_5691045 phases=3 bus1=94378765002211.1.2.3 bus2=94378765002211B.1.2.3 switch=y r1=1e-4 x1=1e-4 length=0.001 units=km
open line.SC_5691045 1
new line.SC_5692517 phases=3 bus1=94400645002211.1.2.3 bus2=94400645002211B.1.2.3 switch=y r1=1e-4 x1=1e-4 length=0.001 units=km
new line.SC_5692518 phases=3 bus1=94399925002211.1.2.3 bus2=94399925002211B.1.2.3 switch=y r1=1e-4 x1=1e-4 length=0.001 units=km
open line.SC_5692518 1
new line.SC_5702433 phases=3 bus1=94291825002211.1.2.3 bus2=94291825002211B.1.2.3 switch=y r1=1e-4 x1=1e-4 length=0.001 units=km
new line.SC_5702452 phases=3 bus1=94324395002211.1.2.3 bus2=94324395002211B.1.2.3 switch=y r1=1e-4 x1=1e-4 length=0.001 units=km
new line.SC_5703480 phases=3 bus1=82312695002211.1.2.3 bus2=82312695002211B.1.2.3 switch=y r1=1e-4 x1=1e-4 length=0.001 units=km
new line.SC_5703564 phases=3 bus1=94583435002211.1.2.3 bus2=94583435002211B.1.2.3 switch=y r1=1e-4 x1=1e-4 length=0.001 units=km
open line.SC_5703564 1
new line.SC_5708614 phases=3 bus1=82290305002211.1.2.3 bus2=82290305002211B.1.2.3 switch=y r1=1e-4 x1=1e-4 length=0.001 units=km
new line.SC_5708615 phases=3 bus1=94710005002211.1.2.3 bus2=94710005002211B.1.2.3 switch=y r1=1e-4 x1=1e-4 length=0.001 units=km
open line.SC_5708615 1
new line.SC_5720957 phases=3 bus1=95215035002211.1.2.3 bus2=95215035002211B.1.2.3 switch=y r1=1e-4 x1=1e-4 length=0.001 units=km
open line.SC_5720957 1
new line.SC_5720960 phases=3 bus1=95215075002211.1.2.3 bus2=95215075002211B.1.2.3 switch=y r1=1e-4 x1=1e-4 length=0.001 units=km
open line.SC_5720960 1
new line.SC_5735955 phases=3 bus1=82283165002211.1.2.3 bus2=82283165002211B.1.2.3 switch=y r1=1e-4 x1=1e-4 length=0.001 units=km
new line.SC_5742883 phases=3 bus1=82318295002211.1.2.3 bus2=82318295002211B.1.2.3 switch=y r1=1e-4 x1=1e-4 length=0.001 units=km
new line.SC_5751814 phases=3 bus1=96763555002211.1.2.3 bus2=96763555002211B.1.2.3 switch=y r1=1e-4 x1=1e-4 length=0.001 units=km
open line.SC_5751814 1
new line.SC_5751815 phases=3 bus1=82374135002211.1.2.3 bus2=82374135002211B.1.2.3 switch=y r1=1e-4 x1=1e-4 length=0.001 units=km
open line.SC_5751815 1
new line.SC_5752730 phases=3 bus1=82374115002211.1.2.3 bus2=82374115002211B.1.2.3 switch=y r1=1e-4 x1=1e-4 length=0.001 units=km
new line.SC_5755638 phases=3 bus1=82312245002211.1.2.3 bus2=82312245002211B.1.2.3 switch=y r1=1e-4 x1=1e-4 length=0.001 units=km
new line.SC_5757064 phases=3 bus1=82303245002211.1.2.3 bus2=82303245002211B.1.2.3 switch=y r1=1e-4 x1=1e-4 length=0.001 units=km
open line.SC_5757064 1
new line.SC_5761355 phases=3 bus1=97130165002211.1.2.3 bus2=97130165002211B.1.2.3 switch=y r1=1e-4 x1=1e-4 length=0.001 units=km
open line.SC_5761355 1
new line.SC_5761361 phases=3 bus1=97130135002211.1.2.3 bus2=97130135002211B.1.2.3 switch=y r1=1e-4 x1=1e-4 length=0.001 units=km
new line.SC_5761706 phases=3 bus1=82303445002211.1.2.3 bus2=82303445002211B.1.2.3 switch=y r1=1e-4 x1=1e-4 length=0.001 units=km
new line.SC_5764531 phases=3 bus1=82304075002211.1.2.3 bus2=82304075002211B.1.2.3 switch=y r1=1e-4 x1=1e-4 length=0.001 units=km
open line.SC_5764531 1
new line.SC_5785090 phases=3 bus1=98014425002211.1.2.3 bus2=98014425002211B.1.2.3 switch=y r1=1e-4 x1=1e-4 length=0.001 units=km
open line.SC_5785090 1
new line.SC_5785092 phases=3 bus1=98014395002211.1.2.3 bus2=98014395002211B.1.2.3 switch=y r1=1e-4 x1=1e-4 length=0.001 units=km
new line.SC_5788488 phases=3 bus1=82294525002211.1.2.3 bus2=82294525002211B.1.2.3 switch=y r1=1e-4 x1=1e-4 length=0.001 units=km
new line.SC_5806538 phases=3 bus1=82310005002211.1.2.3 bus2=82310005002211B.1.2.3 switch=y r1=1e-4 x1=1e-4 length=0.001 units=km
new line.SC_5289160 phases=3 bus1=82284505002211.1.2.3 bus2=82284505002211B.1.2.3 switch=y r1=1e-4 x1=1e-4 length=0.001 units=km
new line.SC_5724801 phases=3 bus1=95406595002211.1.2.3 bus2=95406595002211B.1.2.3 switch=y r1=1e-4 x1=1e-4 length=0.001 units=km
open line.SC_5724801 1
new line.SC_SA0002843 phases=3 bus1=SA0002843.1.2.3 bus2=SA0002843B.1.2.3 switch=y r1=1e-4 x1=1e-4 length=0.001 units=km
new line.SC_SA0002842 phases=3 bus1=SA0002842.1.2.3 bus2=SA0002842B.1.2.3 switch=y r1=1e-4 x1=1e-4 length=0.001 units=km
new line.SC_SA0002844 phases=3 bus1=SA0002844.1.2.3 bus2=SA0002844B.1.2.3 switch=y r1=1e-4 x1=1e-4 length=0.001 units=km
new line.SC_5815373 phases=3 bus1=82307815002211.1.2.3 bus2=82307815002211B.1.2.3 switch=y r1=1e-4 x1=1e-4 length=0.001 units=km
new line.SC_5807723 phases=3 bus1=99134215002211.1.2.3 bus2=99134215002211B.1.2.3 switch=y r1=1e-4 x1=1e-4 length=0.001 units=km
open line.SC_5807723 1
new line.SC_DA0000435 phases=3 bus1=I888888103575002211.1.2.3 bus2=I888888103575002211B.1.2.3 switch=y r1=1e-4 x1=1e-4 length=0.001 units=km

! 5. Transformadores MT/BT de Distribuicao
new transformer.UNTRMT_5289212 phases=3 windings=2 %r=1.55 xhl=3.14 kva=75.0
~ wdg=1 bus=82300145002211.1.2.3 conn=delta kv=13.8
~ wdg=2 bus=82300145289212.1.2.3.0 conn=wye kv=0.38

new transformer.UNTRMT_5289213 phases=3 windings=2 %r=1.46 xhl=3.18 kva=112.0
~ wdg=1 bus=82300295002211.1.2.3 conn=delta kv=13.8
~ wdg=2 bus=82300295289213.1.2.3.0 conn=wye kv=0.38

new transformer.UNTRMT_5289230 phases=3 windings=2 %r=1.68 xhl=3.07 kva=45.0
~ wdg=1 bus=88876135002211.1.2.3 conn=delta kv=13.8
~ wdg=2 bus=88876135289230.1.2.3.0 conn=wye kv=0.38

new transformer.UNTRMT_5289232 phases=3 windings=2 %r=1.68 xhl=3.07 kva=45.0
~ wdg=1 bus=82284535002211.1.2.3 conn=delta kv=13.8
~ wdg=2 bus=82284535289232.1.2.3.0 conn=wye kv=0.38

new transformer.UNTRMT_5289233 phases=3 windings=2 %r=1.68 xhl=3.07 kva=45.0
~ wdg=1 bus=82284645002211.1.2.3 conn=delta kv=13.8
~ wdg=2 bus=82284645289233.1.2.3.0 conn=wye kv=0.38

new transformer.UNTRMT_5450816 phases=3 windings=2 %r=1.46 xhl=3.18 kva=112.0
~ wdg=1 bus=87157485002211.1.2.3 conn=delta kv=13.8
~ wdg=2 bus=87157485450816.1.2.3.0 conn=wye kv=0.38

new transformer.UNTRMT_5487014 phases=3 windings=2 %r=1.46 xhl=3.18 kva=112.0
~ wdg=1 bus=88160985002211.1.2.3 conn=delta kv=13.8
~ wdg=2 bus=88160985487014.1.2.3.0 conn=wye kv=0.38

new transformer.UNTRMT_5518557 phases=3 windings=2 %r=1.46 xhl=3.18 kva=112.0
~ wdg=1 bus=89137445002211.1.2.3 conn=delta kv=13.8
~ wdg=2 bus=89137445518557.1.2.3.0 conn=wye kv=0.38

new transformer.UNTRMT_5595823 phases=3 windings=2 %r=1.55 xhl=3.14 kva=75.0
~ wdg=1 bus=91606105002211.1.2.3 conn=delta kv=13.8
~ wdg=2 bus=91606105595823.1.2.3.0 conn=wye kv=0.38

new transformer.UNTRMT_5813881 phases=3 windings=2 %r=1.39 xhl=3.21 kva=150.0
~ wdg=1 bus=99505465002211.1.2.3 conn=delta kv=13.8
~ wdg=2 bus=99505465813881.1.2.3.0 conn=wye kv=0.38

new transformer.UNTRMT_5289120 phases=3 windings=2 %r=1.55 xhl=3.14 kva=75.0
~ wdg=1 bus=82283155002211.1.2.3 conn=delta kv=13.8
~ wdg=2 bus=82283155289120.1.2.3.0 conn=wye kv=0.38

new transformer.UNTRMT_5289123 phases=3 windings=2 %r=1.46 xhl=3.18 kva=112.0
~ wdg=1 bus=85870135002211.1.2.3 conn=delta kv=13.8
~ wdg=2 bus=85870135289123.1.2.3.0 conn=wye kv=0.38

new transformer.UNTRMT_5289124 phases=3 windings=2 %r=1.55 xhl=3.14 kva=75.0
~ wdg=1 bus=82286445002211.1.2.3 conn=delta kv=13.8
~ wdg=2 bus=82286445289124.1.2.3.0 conn=wye kv=0.38

new transformer.UNTRMT_5289126 phases=3 windings=2 %r=1.55 xhl=3.14 kva=112.0
~ wdg=1 bus=82286635002211.1.2.3 conn=delta kv=13.8
~ wdg=2 bus=82286635289126.1.2.3.0 conn=wye kv=0.38

new transformer.UNTRMT_5289127 phases=3 windings=2 %r=1.55 xhl=3.14 kva=75.0
~ wdg=1 bus=82299275002211.1.2.3 conn=delta kv=13.8
~ wdg=2 bus=82299275289127.1.2.3.0 conn=wye kv=0.38

new transformer.UNTRMT_5289129 phases=3 windings=2 %r=1.55 xhl=3.14 kva=75.0
~ wdg=1 bus=82285345002211.1.2.3 conn=delta kv=13.8
~ wdg=2 bus=82285345289129.1.2.3.0 conn=wye kv=0.38

new transformer.UNTRMT_5289135 phases=3 windings=2 %r=1.55 xhl=3.14 kva=75.0
~ wdg=1 bus=82320305002211.1.2.3 conn=delta kv=13.8
~ wdg=2 bus=82320305289135.1.2.3.0 conn=wye kv=0.38

new transformer.UNTRMT_5289136 phases=1 windings=3 %r=2.08 xhl=1.39 xht=1.39 xlt=0.97 kva=10.0
~ wdg=1 bus=82320325002211.2 conn=wye kv=7.96 kva=10.0 %r=1.04
~ wdg=2 bus=82320325289136.1.0 conn=wye kv=0.22 kva=10.0 %r=1.04
~ wdg=3 bus=82320325289136.0.2 conn=wye kv=0.22 kva=10.0 %r=1.04

new transformer.UNTRMT_5289137 phases=3 windings=2 %r=1.68 xhl=3.07 kva=45.0
~ wdg=1 bus=82308315002211.1.2.3 conn=delta kv=13.8
~ wdg=2 bus=82308315289137.1.2.3.0 conn=wye kv=0.38

new transformer.UNTRMT_5289139 phases=3 windings=2 %r=1.46 xhl=3.18 kva=112.0
~ wdg=1 bus=82302965002211.1.2.3 conn=delta kv=13.8
~ wdg=2 bus=82302965289139.1.2.3.0 conn=wye kv=0.38

new transformer.UNTRMT_5289140 phases=1 windings=3 %r=1.97 xhl=1.55 xht=1.55 xlt=1.08 kva=15.0
~ wdg=1 bus=82302995002211.2 conn=wye kv=7.96 kva=15.0 %r=0.985
~ wdg=2 bus=82302995289140.1.0 conn=wye kv=0.22 kva=15.0 %r=0.985
~ wdg=3 bus=82302995289140.0.2 conn=wye kv=0.22 kva=15.0 %r=0.985

new transformer.UNTRMT_5289207 phases=3 windings=2 %r=1.46 xhl=3.18 kva=112.0
~ wdg=1 bus=82282465002211.1.2.3 conn=delta kv=13.8
~ wdg=2 bus=82282465289207.1.2.3.0 conn=wye kv=0.38

new transformer.UNTRMT_5289208 phases=3 windings=2 %r=1.55 xhl=3.14 kva=75.0
~ wdg=1 bus=82282605002211.1.2.3 conn=delta kv=13.8
~ wdg=2 bus=82282605289208.1.2.3.0 conn=wye kv=0.38

new transformer.UNTRMT_5289209 phases=3 windings=2 %r=1.46 xhl=3.18 kva=112.0
~ wdg=1 bus=82295695002211.1.2.3 conn=delta kv=13.8
~ wdg=2 bus=82295695289209.1.2.3.0 conn=wye kv=0.38

new transformer.UNTRMT_5289210 phases=3 windings=2 %r=1.55 xhl=3.14 kva=75.0
~ wdg=1 bus=82295775002211.1.2.3 conn=delta kv=13.8
~ wdg=2 bus=82295775289210.1.2.3.0 conn=wye kv=0.38

new transformer.UNTRMT_5289211 phases=3 windings=2 %r=1.55 xhl=3.14 kva=75.0
~ wdg=1 bus=82297295002211.1.2.3 conn=delta kv=13.8
~ wdg=2 bus=82297295289211.1.2.3.0 conn=wye kv=0.38

new transformer.UNTRMT_5289214 phases=3 windings=2 %r=1.55 xhl=3.14 kva=75.0
~ wdg=1 bus=82283345002211.1.2.3 conn=delta kv=13.8
~ wdg=2 bus=82283345289214.1.2.3.0 conn=wye kv=0.38

new transformer.UNTRMT_5289215 phases=3 windings=2 %r=1.39 xhl=3.21 kva=150.0
~ wdg=1 bus=82286315002211.1.2.3 conn=delta kv=13.8
~ wdg=2 bus=82286315289215.1.2.3.0 conn=wye kv=0.38

new transformer.UNTRMT_5289216 phases=3 windings=2 %r=1.39 xhl=3.21 kva=150.0
~ wdg=1 bus=82286585002211.1.2.3 conn=delta kv=13.8
~ wdg=2 bus=82286585289216.1.2.3.0 conn=wye kv=0.38

new transformer.UNTRMT_5289217 phases=3 windings=2 %r=1.46 xhl=3.18 kva=112.0
~ wdg=1 bus=82286855002211.1.2.3 conn=delta kv=13.8
~ wdg=2 bus=82286855289217.1.2.3.0 conn=wye kv=0.38

new transformer.UNTRMT_5289218 phases=3 windings=2 %r=1.55 xhl=3.14 kva=75.0
~ wdg=1 bus=82286715002211.1.2.3 conn=delta kv=13.8
~ wdg=2 bus=82286715289218.1.2.3.0 conn=wye kv=0.38

new transformer.UNTRMT_5289219 phases=3 windings=2 %r=1.46 xhl=3.18 kva=112.0
~ wdg=1 bus=82283565002211.1.2.3 conn=delta kv=13.8
~ wdg=2 bus=82283565289219.1.2.3.0 conn=wye kv=0.38

new transformer.UNTRMT_5289220 phases=3 windings=2 %r=1.55 xhl=3.14 kva=75.0
~ wdg=1 bus=82300945002211.1.2.3 conn=delta kv=13.8
~ wdg=2 bus=82300945289220.1.2.3.0 conn=wye kv=0.38

new transformer.UNTRMT_5289221 phases=3 windings=2 %r=1.78 xhl=3.01 kva=30.0
~ wdg=1 bus=82299465002211.1.2.3 conn=delta kv=13.8
~ wdg=2 bus=82299465289221.1.2.3.0 conn=wye kv=0.38

new transformer.UNTRMT_5289222 phases=3 windings=2 %r=1.46 xhl=3.18 kva=112.0
~ wdg=1 bus=82298425002211.1.2.3 conn=delta kv=13.8
~ wdg=2 bus=82298425289222.1.2.3.0 conn=wye kv=0.38

new transformer.UNTRMT_5289223 phases=3 windings=2 %r=1.46 xhl=3.18 kva=112.0
~ wdg=1 bus=82291425002211.1.2.3 conn=delta kv=13.8
~ wdg=2 bus=82291425289223.1.2.3.0 conn=wye kv=0.38

new transformer.UNTRMT_5289224 phases=3 windings=2 %r=1.55 xhl=3.14 kva=75.0
~ wdg=1 bus=82298825002211.1.2.3 conn=delta kv=13.8
~ wdg=2 bus=82298825289224.1.2.3.0 conn=wye kv=0.38

new transformer.UNTRMT_5289225 phases=3 windings=2 %r=1.46 xhl=3.18 kva=112.0
~ wdg=1 bus=82298295002211.1.2.3 conn=delta kv=13.8
~ wdg=2 bus=82298295289225.1.2.3.0 conn=wye kv=0.38

new transformer.UNTRMT_5289226 phases=3 windings=2 %r=1.68 xhl=3.07 kva=45.0
~ wdg=1 bus=82299115002211.1.2.3 conn=delta kv=13.8
~ wdg=2 bus=82299115289226.1.2.3.0 conn=wye kv=0.38

new transformer.UNTRMT_5289227 phases=3 windings=2 %r=1.78 xhl=3.01 kva=30.0
~ wdg=1 bus=82299165002211.1.2.3 conn=delta kv=13.8
~ wdg=2 bus=82299165289227.1.2.3.0 conn=wye kv=0.38

new transformer.UNTRMT_5289228 phases=3 windings=2 %r=1.46 xhl=3.18 kva=112.0
~ wdg=1 bus=82284025002211.1.2.3 conn=delta kv=13.8
~ wdg=2 bus=82284025289228.1.2.3.0 conn=wye kv=0.38

new transformer.UNTRMT_5289229 phases=3 windings=2 %r=1.46 xhl=3.18 kva=112.0
~ wdg=1 bus=82284205002211.1.2.3 conn=delta kv=13.8
~ wdg=2 bus=82284205289229.1.2.3.0 conn=wye kv=0.38

new transformer.UNTRMT_5289231 phases=3 windings=2 %r=1.46 xhl=3.18 kva=112.0
~ wdg=1 bus=82284465002211.1.2.3 conn=delta kv=13.8
~ wdg=2 bus=82284465289231.1.2.3.0 conn=wye kv=0.38

new transformer.UNTRMT_5289234 phases=3 windings=2 %r=1.68 xhl=3.07 kva=75.0
~ wdg=1 bus=82284765002211.1.2.3 conn=delta kv=13.8
~ wdg=2 bus=82284765289234.1.2.3.0 conn=wye kv=0.38

new transformer.UNTRMT_5289235 phases=3 windings=2 %r=1.46 xhl=3.18 kva=112.0
~ wdg=1 bus=82285085002211.1.2.3 conn=delta kv=13.8
~ wdg=2 bus=82285085289235.1.2.3.0 conn=wye kv=0.38

new transformer.UNTRMT_5289236 phases=3 windings=2 %r=1.46 xhl=3.18 kva=112.0
~ wdg=1 bus=82287495002211.1.2.3 conn=delta kv=13.8
~ wdg=2 bus=82287495289236.1.2.3.0 conn=wye kv=0.38

new transformer.UNTRMT_5289237 phases=3 windings=2 %r=1.55 xhl=3.14 kva=75.0
~ wdg=1 bus=82288325002211.1.2.3 conn=delta kv=13.8
~ wdg=2 bus=82288325289237.1.2.3.0 conn=wye kv=0.38

new transformer.UNTRMT_5289238 phases=3 windings=2 %r=1.46 xhl=3.18 kva=112.0
~ wdg=1 bus=82287165002211.1.2.3 conn=delta kv=13.8
~ wdg=2 bus=82287165289238.1.2.3.0 conn=wye kv=0.38

new transformer.UNTRMT_5289239 phases=3 windings=2 %r=1.46 xhl=3.18 kva=112.0
~ wdg=1 bus=82287285002211.1.2.3 conn=delta kv=13.8
~ wdg=2 bus=82287285289239.1.2.3.0 conn=wye kv=0.38

new transformer.UNTRMT_5289240 phases=3 windings=2 %r=1.46 xhl=3.18 kva=112.0
~ wdg=1 bus=82287595002211.1.2.3 conn=delta kv=13.8
~ wdg=2 bus=82287595289240.1.2.3.0 conn=wye kv=0.38

new transformer.UNTRMT_5289241 phases=3 windings=2 %r=1.68 xhl=3.07 kva=45.0
~ wdg=1 bus=82288255002211.1.2.3 conn=delta kv=13.8
~ wdg=2 bus=82288255289241.1.2.3.0 conn=wye kv=0.38

new transformer.UNTRMT_5289242 phases=3 windings=2 %r=1.55 xhl=3.14 kva=75.0
~ wdg=1 bus=82290255002211.1.2.3 conn=delta kv=13.8
~ wdg=2 bus=82290255289242.1.2.3.0 conn=wye kv=0.38

new transformer.UNTRMT_5289243 phases=3 windings=2 %r=1.78 xhl=3.01 kva=30.0
~ wdg=1 bus=82290195002211.1.2.3 conn=delta kv=13.8
~ wdg=2 bus=82290195289243.1.2.3.0 conn=wye kv=0.38

new transformer.UNTRMT_5289244 phases=3 windings=2 %r=1.55 xhl=3.14 kva=75.0
~ wdg=1 bus=82289855002211.1.2.3 conn=delta kv=13.8
~ wdg=2 bus=82289855289244.1.2.3.0 conn=wye kv=0.38

new transformer.UNTRMT_5289245 phases=3 windings=2 %r=1.55 xhl=3.14 kva=75.0
~ wdg=1 bus=82291325002211.1.2.3 conn=delta kv=13.8
~ wdg=2 bus=82291325289245.1.2.3.0 conn=wye kv=0.38

new transformer.UNTRMT_5289246 phases=3 windings=2 %r=1.68 xhl=3.07 kva=45.0
~ wdg=1 bus=82292145002211.1.2.3 conn=delta kv=13.8
~ wdg=2 bus=82292145289246.1.2.3.0 conn=wye kv=0.38

new transformer.UNTRMT_5289247 phases=3 windings=2 %r=1.46 xhl=3.18 kva=112.0
~ wdg=1 bus=82294555002211.1.2.3 conn=delta kv=13.8
~ wdg=2 bus=82294555289247.1.2.3.0 conn=wye kv=0.38

new transformer.UNTRMT_5289248 phases=3 windings=2 %r=1.46 xhl=3.18 kva=112.0
~ wdg=1 bus=82294235002211.1.2.3 conn=delta kv=13.8
~ wdg=2 bus=82294235289248.1.2.3.0 conn=wye kv=0.38

new transformer.UNTRMT_5289249 phases=3 windings=2 %r=1.46 xhl=3.18 kva=112.0
~ wdg=1 bus=82294375002211.1.2.3 conn=delta kv=13.8
~ wdg=2 bus=82294375289249.1.2.3.0 conn=wye kv=0.38

new transformer.UNTRMT_5289250 phases=3 windings=2 %r=1.55 xhl=3.14 kva=75.0
~ wdg=1 bus=82290665002211.1.2.3 conn=delta kv=13.8
~ wdg=2 bus=82290665289250.1.2.3.0 conn=wye kv=0.38

new transformer.UNTRMT_5289251 phases=3 windings=2 %r=1.55 xhl=3.14 kva=75.0
~ wdg=1 bus=82294905002211.1.2.3 conn=delta kv=13.8
~ wdg=2 bus=82294905289251.1.2.3.0 conn=wye kv=0.38

new transformer.UNTRMT_5289252 phases=3 windings=2 %r=1.68 xhl=3.07 kva=45.0
~ wdg=1 bus=82296055002211.1.2.3 conn=delta kv=13.8
~ wdg=2 bus=82296055289252.1.2.3.0 conn=wye kv=0.38

new transformer.UNTRMT_5289253 phases=3 windings=2 %r=1.55 xhl=3.14 kva=75.0
~ wdg=1 bus=82296085002211.1.2.3 conn=delta kv=13.8
~ wdg=2 bus=82296085289253.1.2.3.0 conn=wye kv=0.38

new transformer.UNTRMT_5289254 phases=3 windings=2 %r=1.68 xhl=3.07 kva=45.0
~ wdg=1 bus=82295355002211.1.2.3 conn=delta kv=13.8
~ wdg=2 bus=82295355289254.1.2.3.0 conn=wye kv=0.38

new transformer.UNTRMT_5289255 phases=3 windings=2 %r=1.46 xhl=3.18 kva=112.0
~ wdg=1 bus=82295515002211.1.2.3 conn=delta kv=13.8
~ wdg=2 bus=82295515289255.1.2.3.0 conn=wye kv=0.38

new transformer.UNTRMT_5289256 phases=3 windings=2 %r=1.55 xhl=3.14 kva=75.0
~ wdg=1 bus=82296545002211.1.2.3 conn=delta kv=13.8
~ wdg=2 bus=82296545289256.1.2.3.0 conn=wye kv=0.38

new transformer.UNTRMT_5289257 phases=3 windings=2 %r=1.46 xhl=3.18 kva=112.0
~ wdg=1 bus=82289905002211.1.2.3 conn=delta kv=13.8
~ wdg=2 bus=82289905289257.1.2.3.0 conn=wye kv=0.38

new transformer.UNTRMT_5289258 phases=3 windings=2 %r=1.55 xhl=3.14 kva=75.0
~ wdg=1 bus=82290075002211.1.2.3 conn=delta kv=13.8
~ wdg=2 bus=82290075289258.1.2.3.0 conn=wye kv=0.38

new transformer.UNTRMT_5289259 phases=3 windings=2 %r=1.46 xhl=3.18 kva=112.0
~ wdg=1 bus=82290985002211.1.2.3 conn=delta kv=13.8
~ wdg=2 bus=82290985289259.1.2.3.0 conn=wye kv=0.38

new transformer.UNTRMT_5289260 phases=3 windings=2 %r=1.46 xhl=3.18 kva=112.0
~ wdg=1 bus=82291115002211.1.2.3 conn=delta kv=13.8
~ wdg=2 bus=82291115289260.1.2.3.0 conn=wye kv=0.38

new transformer.UNTRMT_5289261 phases=3 windings=2 %r=1.68 xhl=3.07 kva=45.0
~ wdg=1 bus=82292025002211.1.2.3 conn=delta kv=13.8
~ wdg=2 bus=82292025289261.1.2.3.0 conn=wye kv=0.38

new transformer.UNTRMT_5289262 phases=3 windings=2 %r=1.46 xhl=3.18 kva=112.0
~ wdg=1 bus=82285585002211.1.2.3 conn=delta kv=13.8
~ wdg=2 bus=82285585289262.1.2.3.0 conn=wye kv=0.38

new transformer.UNTRMT_5289263 phases=3 windings=2 %r=1.46 xhl=3.18 kva=112.0
~ wdg=1 bus=82285545002211.1.2.3 conn=delta kv=13.8
~ wdg=2 bus=82285545289263.1.2.3.0 conn=wye kv=0.38

new transformer.UNTRMT_5289264 phases=3 windings=2 %r=1.46 xhl=3.18 kva=112.0
~ wdg=1 bus=82285675002211.1.2.3 conn=delta kv=13.8
~ wdg=2 bus=82285675289264.1.2.3.0 conn=wye kv=0.38

new transformer.UNTRMT_5289265 phases=3 windings=2 %r=1.46 xhl=3.18 kva=112.0
~ wdg=1 bus=82293575002211.1.2.3 conn=delta kv=13.8
~ wdg=2 bus=82293575289265.1.2.3.0 conn=wye kv=0.38

new transformer.UNTRMT_5289266 phases=3 windings=2 %r=1.55 xhl=3.14 kva=75.0
~ wdg=1 bus=82293625002211.1.2.3 conn=delta kv=13.8
~ wdg=2 bus=82293625289266.1.2.3.0 conn=wye kv=0.38

new transformer.UNTRMT_5289268 phases=3 windings=2 %r=1.68 xhl=3.07 kva=45.0
~ wdg=1 bus=82308495002211.1.2.3 conn=delta kv=13.8
~ wdg=2 bus=82308495289268.1.2.3.0 conn=wye kv=0.38

new transformer.UNTRMT_5289269 phases=3 windings=2 %r=1.55 xhl=3.14 kva=75.0
~ wdg=1 bus=82309165002211.1.2.3 conn=delta kv=13.8
~ wdg=2 bus=82309165289269.1.2.3.0 conn=wye kv=0.38

new transformer.UNTRMT_5289270 phases=3 windings=2 %r=1.46 xhl=3.18 kva=112.0
~ wdg=1 bus=82303595002211.1.2.3 conn=delta kv=13.8
~ wdg=2 bus=82303595289270.1.2.3.0 conn=wye kv=0.38

new transformer.UNTRMT_5289271 phases=3 windings=2 %r=1.55 xhl=3.14 kva=75.0
~ wdg=1 bus=82310025002211.1.2.3 conn=delta kv=13.8
~ wdg=2 bus=82310025289271.1.2.3.0 conn=wye kv=0.38

new transformer.UNTRMT_5289272 phases=3 windings=2 %r=1.68 xhl=3.07 kva=45.0
~ wdg=1 bus=82312555002211.1.2.3 conn=delta kv=13.8
~ wdg=2 bus=82312555289272.1.2.3.0 conn=wye kv=0.38

new transformer.UNTRMT_5289274 phases=3 windings=2 %r=1.55 xhl=3.14 kva=75.0
~ wdg=1 bus=82305905002211.1.2.3 conn=delta kv=13.8
~ wdg=2 bus=82305905289274.1.2.3.0 conn=wye kv=0.38

new transformer.UNTRMT_5289275 phases=3 windings=2 %r=1.46 xhl=3.18 kva=112.0
~ wdg=1 bus=82307205002211.1.2.3 conn=delta kv=13.8
~ wdg=2 bus=82307205289275.1.2.3.0 conn=wye kv=0.38

new transformer.UNTRMT_5289277 phases=3 windings=2 %r=1.46 xhl=3.18 kva=112.0
~ wdg=1 bus=82314925002211.1.2.3 conn=delta kv=13.8
~ wdg=2 bus=82314925289277.1.2.3.0 conn=wye kv=0.38

new transformer.UNTRMT_5289278 phases=3 windings=2 %r=1.55 xhl=3.14 kva=75.0
~ wdg=1 bus=82315405002211.1.2.3 conn=delta kv=13.8
~ wdg=2 bus=82315405289278.1.2.3.0 conn=wye kv=0.38

new transformer.UNTRMT_5289279 phases=3 windings=2 %r=1.39 xhl=3.21 kva=150.0
~ wdg=1 bus=82312745002211.1.2.3 conn=delta kv=13.8
~ wdg=2 bus=82312745289279.1.2.3.0 conn=wye kv=0.38

new transformer.UNTRMT_5289280 phases=3 windings=2 %r=1.55 xhl=3.14 kva=75.0
~ wdg=1 bus=82313485002211.1.2.3 conn=delta kv=13.8
~ wdg=2 bus=82313485289280.1.2.3.0 conn=wye kv=0.38

new transformer.UNTRMT_5289281 phases=3 windings=2 %r=1.68 xhl=3.07 kva=45.0
~ wdg=1 bus=82305995002211.1.2.3 conn=delta kv=13.8
~ wdg=2 bus=82305995289281.1.2.3.0 conn=wye kv=0.38

new transformer.UNTRMT_5289282 phases=3 windings=2 %r=1.68 xhl=3.07 kva=45.0
~ wdg=1 bus=82306065002211.1.2.3 conn=delta kv=13.8
~ wdg=2 bus=82306065289282.1.2.3.0 conn=wye kv=0.38

new transformer.UNTRMT_5289283 phases=3 windings=2 %r=1.46 xhl=3.18 kva=112.0
~ wdg=1 bus=82306465002211.1.2.3 conn=delta kv=13.8
~ wdg=2 bus=82306465289283.1.2.3.0 conn=wye kv=0.38

new transformer.UNTRMT_5289285 phases=3 windings=2 %r=1.46 xhl=3.18 kva=112.0
~ wdg=1 bus=82303465002211.1.2.3 conn=delta kv=13.8
~ wdg=2 bus=82303465289285.1.2.3.0 conn=wye kv=0.38

new transformer.UNTRMT_5289288 phases=3 windings=2 %r=1.46 xhl=3.18 kva=112.0
~ wdg=1 bus=82314745002211.1.2.3 conn=delta kv=13.8
~ wdg=2 bus=82314745289288.1.2.3.0 conn=wye kv=0.38

new transformer.UNTRMT_5289289 phases=3 windings=2 %r=1.55 xhl=3.14 kva=75.0
~ wdg=1 bus=82306505002211.1.2.3 conn=delta kv=13.8
~ wdg=2 bus=82306505289289.1.2.3.0 conn=wye kv=0.38

new transformer.UNTRMT_5289293 phases=3 windings=2 %r=1.46 xhl=3.18 kva=112.0
~ wdg=1 bus=82309305002211.1.2.3 conn=delta kv=13.8
...